A
AB
ABA
ABEL
ACA
ACK
ACKA
ACKER
AD
AH
AHARA
AI
AIGHT
AIMBILAN
AIT
AJ
ALAD
ALFOR
ALLELU
AM
AMA
AMBER
AN
ANTI
ANTIHI
ANTIRE
AP
APA
APARA
APARE
APPLE
APRO
AR
ARA
ARCA
ARE
ARI
ARY
AS
ASEN
AT
ATER
ATZEN
AZULE
B
BA
BAN
BASEN
BE
BEL
BEN
BER
BHA
BI
BILAN
BIZ
BLACK
BLUE
BO
BOO
BOOT
BPRO
CA
CAR
CARCA
CAT
CHAPARA
CHAPARE
CHEAP
CIRCUM
CK
CKA
CKER
CO
COAD
CON
COTI
COUNTERPRO
CRACKA
CRACKER
CRAM
CRO
CROIN
CROPRO
CTRO
CUM
D
DE
DEE
DEMI
DER
DID
DIS
DO
DON
DOOR
E
EAD
EAP
EAR
ECTRO
EE
EEN
EEPLE
EGAPRO
EI
EIN
EL
ELECTRO
ELU
EMI
EMO
EN
EOB
EPLE
ER
ERAD
ERBE
ERMA
ERMO
ERPRO
ERSUB
ESO
EXTRA
F
FA
FAN
FEI
FLAP
FOR
FORE
FRAB
FRI
FU
G
GAI
GAMA
GAN
GAPRO
GH
GHT
GO
GUMA
GYTT
H
HA
HAD
HAJ
HALLELU
HAPARA
HAPARE
HARA
HARI
HE
HEAP
HERMO
HI
HIGH
HINGAMA
HINGUMA
HO
HOTO
HT
HU
I
ICROIN
ICROPRO
ID
IGH
IGHT
IHI
ILAN
ILL
ILLA
ILO
IM
IMBILAN
IN
IND
INGAMA
INGUMA
INK
INKA
INTER
INTERSUB
INTRO
IO
IP
IPI
IRAIMBILAN
IRCUM
IRE
IRO
IS
ISAD
IT
IU
IZ
J
JE
JIM
JIPI
JIU
JO
JU
K
KA
KABEL
KAN
KATZEN
KE
KER
KI
KILL
KILO
KINKA
KIP
KO
KOP
KURRA
KY
L
LA
LACK
LAD
LAN
LAP
LAR
LE
LECTRO
LELU
LFOR
LL
LLA
LLELU
LO
LOCK
LOG
LONG
LSE
LSO
LTI
LU
LUE
LUMBER
M
MA
MAH
MAHARA
MALAD
MAR
MARI
MARY
MAS
MBER
MBILAN
MEGAPRO
MI
MICROIN
MICROPRO
MIS
MISAD
MO
MOKE
MOU
MP
MU
MULTI
MUNT
MUS
MUZ
N
NAD
NCON
ND
NDER
NDIS
NG
NGAMA
NGUMA
NIGHT
NIN
NK
NKA
NMA
NOB
NON
NONAD
NONCON
NONDIS
NONIN
NONMA
NONOB
NONSUB
NPRE
NSUB
NT
NTER
NTERPRO
NTERSUB
NTI
NTIHI
NTIRE
NTRO
NUT
O
OAD
OB
OCK
OG
OIN
OKE
OLAR
OMA
ON
ONAD
ONCON
ONDIS
ONG
ONIN
ONMA
ONOB
ONSUB
OO
OOR
OOT
OP
OPIN
OPRO
OR
ORE
OSTIN
OT
OTI
OTO
OU
OUNTERPRO
OUT
OVER
OVERAD
OVERBE
P
PA
PAN
PARA
PARE
PE
PER
PERMA
PHOTO
PI
PIN
PIRO
PLE
POO
POPIN
POSTIN
PPLE
PRA
PRE
PRO
PROP
PU
PULSE
PULSO
PUMP
PUN
PY
QA
QUILLA
R
RA
RAB
RACKA
RACKER
RAD
RAIGHT
RAIMBILAN
RAIT
RAM
RBE
RBO
RCA
RCUM
RE
READ
REE
REEN
REIN
REOB
RESO
RI
RIO
RMA
RMO
RO
ROIN
ROMA
ROP
ROPRO
RPRO
RRA
RRE
RSUB
RY
S
SA
SAD
SAN
SAPA
SCRAM
SE
SEN
SER
SHO
SKI
SKIP
SKY
SLAP
SLO
SMOKE
SO
STEEPLE
STIN
STOCK
STRAIGHT
STRAIT
SUB
SUBPRO
SUPER
SUPERMA
SUPPLE
SUR
SURRE
SVARA
SWARA
T
TA
TEAR
TEEPLE
TER
TERPRO
TERSUB
THERMO
THINGAMA
THINGUMA
THU
TI
TIHI
TIN
TIRE
TO
TOCK
TOLAR
TRA
TRAIGHT
TRAIT
TRI
TRO
TT
TURBO
TWIN
TZEN
U
UB
UBPRO
UE
UILLA
ULE
ULSE
ULSO
ULTI
UM
UMA
UMBER
UMP
UN
UNAD
UNCON
UNDER
UNIN
UNOB
UNPRE
UNT
UNTERPRO
UPER
UPERMA
UPPLE
UR
URBO
URRA
URRE
US
UT
UZ
VARA
VEE
VER
VERAD
VERBE
WARA
WATER
WIN
WIND
XTRA
Y
YA
YTT
Z
ZABA
ZEN
ZULE
